[General]

# ==========================================================
# Always include the main Castalia.ini file
# ==========================================================

include ../Parameters/Castalia.ini

sim-time-limit = 100s

# Using ideal parameters for wireless channel and CC2420 radio
include ../Parameters/WirelessChannel/Ideal.ini
SN.node[*].Communication.Radio.RadioParametersFile = "../Parameters/Radio/CC2420.txt"
SN.node[*].Communication.Radio.mode = "IDEAL"
SN.node[*].Communication.Radio.collisionModel = 0

SN.node[*].Communication.MACProtocolName = "TunableMAC"
SN.node[*].Communication.MAC.dutyCycle = 1.0
SN.node[*].Communication.MAC.randomTxOffset = 0
SN.node[*].Communication.MAC.backoffType = 2 

# Set radio range
# 40m -> PLd0 = (-5dBm - max(-95dBm, -100dBm)) - 10 * pathLossExponent * log(40m)
SN.wirelessChannel.sigma = 0
SN.wirelessChannel.bidirectionalSigma = 0
SN.node[*].Communication.Radio.TxOutputPower = "-5dBm"
SN.wirelessChannel.pathLossExponent = 2.4
SN.wirelessChannel.PLd0 = 51.55056 

SN.node[*].ApplicationName = "RoutingTest"
SN.node[*].Application.collectTraceInfo = false

# be carefull, turning debig info on may generate a lot of trace data
# SN.node[*].Communication.MAC.collectTraceInfo = true

# SN.node[*].Communication.RoutingProtocolName = "GreedyRouting"
# SN.node[*].Communication.RoutingProtocolName = "BoundHoleRouting"
# SN.node[*].Communication.RoutingProtocolName = "ElbarRouting"
# SN.node[*].Communication.RoutingProtocolName = "GARRouting"
SN.node[*].Communication.RoutingProtocolName = "GEARRouting"
SN.node[*].Communication.Routing.collectTraceInfo = true

# SN.node[*].Communication.RoutingProtocolName = "GeoRouting"
# SN.node[*].Communication.Routing.protocolName = "GPSR"
# SN.node[*].Communication.Routing.protocolMode = "GG"
# SN.node[*].Communication.Routing.protocolName = "BoundHole"

#SN.node[14].Application.packet_rate = 0.2
#SN.node[14].Application.maxData = 100
#SN.node[14].Application.startupDelay = 10
#SN.node[14].Application.nextRecipient = "6"
#
#SN.node[10].Application.packet_rate = 0.2
#SN.node[10].Application.maxData = 100
#SN.node[10].Application.startupDelay = 20
#SN.node[10].Application.nextRecipient = "6"
#
#SN.node[1].Application.packet_rate = 0.2
#SN.node[1].Application.maxData = 100
#SN.node[1].Application.startupDelay = 15
#SN.node[1].Application.nextRecipient = "11"

#SN.wirelessChannel.printDebugInfo = true

include node_location.ini

SN.field_x = 1000.0
SN.field_y = 1000.0
SN.numNodes = 1884

SN.node[273].Application.packet_rate = 0.2
SN.node[273].Application.maxData = 100
SN.node[273].Application.startupDelay = 20
SN.node[273].Application.nextRecipient = "1328"
SN.node[273].Application.sequenceNumber = 0

#SN.node[1172].Application.packet_rate = 0.2
#SN.node[1172].Application.maxData = 100
#SN.node[1172].Application.startupDelay = 20
#SN.node[1172].Application.nextRecipient = "670"
#SN.node[1172].Application.sequenceNumber = 1
